! LV distribution substations – 11/0.4 kV transformers
New Transformer.TrLV_CHECK_INN_SIGNATURE_HOTEL Phases=3 Windings=2
~ Buses=[Bus_F11_132KV_KATAMPE_TS_33KV_WUSE_II_FDR_B52_4B_End, Bus_DS_CHECK_INN_SIGNATURE_HOTEL_Consumer] kVA=200 kV=[11, 0.4]
New Transformer.TrLV_URBAN_SHELTER_CLAUSTER_1 Phases=3 Windings=2
~ Buses=[Bus_FLOATING, Bus_DS_URBAN_SHELTER_CLAUSTER_1_Consumer] kVA=1000 kV=[11, 0.4]
New Transformer.TrLV_Lingo_Estate_Saraha_4_DT_1 Phases=3 Windings=2
~ Buses=[Bus_FLOATING, Bus_DS_Lingo_Estate_Saraha_4_DT_1_Consumer] kVA=300 kV=[11, 0.4]
New Transformer.TrLV_Pengansan_Estate_DT_2 Phases=3 Windings=2
~ Buses=[Bus_FLOATING, Bus_DS_Pengansan_Estate_DT_2_Consumer] kVA=300 kV=[11, 0.4]
New Transformer.TrLV_Buchanan_3_DT Phases=3 Windings=2
~ Buses=[Bus_F11_132KV_KATAMPE_TS_33KV_WUSE_II_FDR_B52_2B_End, Bus_DS_Buchanan_3_DT_Consumer] kVA=500 kV=[11, 0.4]
New Transformer.TrLV_BRIA_STREET Phases=3 Windings=2
~ Buses=[Bus_F11_132KV_KATAMPE_TS_33KV_WUSE_II_FDR_B5_4A_End, Bus_DS_BRIA_STREET_Consumer] kVA=500 kV=[11, 0.4]
New Transformer.TrLV_LIBREVILLE_DT_2_34_LIBREVILLE_STREET Phases=3 Windings=2
~ Buses=[Bus_F11_132KV_KATAMPE_TS_33KV_WUSE_II_FDR_B52_3B_End, Bus_DS_LIBREVILLE_DT_2_34_LIBREVILLE_STREET_Consumer] kVA=500 kV=[11, 0.4]
New Transformer.TrLV_FANDRIANA_2_DT Phases=3 Windings=2
~ Buses=[Bus_F11_132KV_KATAMPE_TS_33KV_WUSE_II_FDR_B52_1A_End, Bus_DS_FANDRIANA_2_DT_Consumer] kVA=500 kV=[11, 0.4]
New Transformer.TrLV_FCDA_QUARTERS_DT_2_KASHIM_IBRAHIM_WAY Phases=3 Windings=2
~ Buses=[Bus_F11_132KV_KATAMPE_TS_33KV_WUSE_II_FDR_B52_3B_End, Bus_DS_FCDA_QUARTERS_DT_2_KASHIM_IBRAHIM_WAY_Consumer] kVA=500 kV=[11, 0.4]
New Transformer.TrLV_Damangasa3 Phases=3 Windings=2
~ Buses=[Bus_FLOATING, Bus_DS_Damangasa3_Consumer] kVA=500 kV=[11, 0.4]
New Transformer.TrLV_COMPACT_S_S_BY_NO_9_KAMPALA_STREET_WUSE_2 Phases=3 Windings=2
~ Buses=[Bus_F11_132KV_KATAMPE_TS_33KV_WUSE_II_FDR_B5_3B_End, Bus_DS_COMPACT_S_S_BY_NO_9_KAMPALA_STREET_WUSE_2_Consumer] kVA=500 kV=[11, 0.4]
New Transformer.TrLV_PITTERS_BURG_DT Phases=3 Windings=2
~ Buses=[Bus_F11_132KV_KATAMPE_TS_33KV_WUSE_II_FDR_B52_1A_End, Bus_DS_PITTERS_BURG_DT_Consumer] kVA=500 kV=[11, 0.4]
New Transformer.TrLV_Ecobank_Cadastral_Branch_Public_DT Phases=3 Windings=2
~ Buses=[Bus_F11_132KV_KATAMPE_TS_33KV_WUSE_II_FDR_B5_3B_End, Bus_DS_Ecobank_Cadastral_Branch_Public_DT_Consumer] kVA=500 kV=[11, 0.4]
New Transformer.TrLV_SANTANA_COMPACT_DT Phases=3 Windings=2
~ Buses=[Bus_F11_132KV_KATAMPE_TS_33KV_WUSE_II_FDR_B52_1A_End, Bus_DS_SANTANA_COMPACT_DT_Consumer] kVA=500 kV=[11, 0.4]
New Transformer.TrLV_Birao_1 Phases=3 Windings=2
~ Buses=[Bus_F11_132KV_KATAMPE_TS_33KV_WUSE_II_FDR_B5_4A_End, Bus_DS_Birao_1_Consumer] kVA=500 kV=[11, 0.4]
New Transformer.TrLV_Kumasi_4_DT Phases=3 Windings=2
~ Buses=[Bus_F11_132KV_KATAMPE_TS_33KV_WUSE_II_FDR_B52_4B_End, Bus_DS_Kumasi_4_DT_Consumer] kVA=500 kV=[11, 0.4]
New Transformer.TrLV_Monrovia_transformer_4 Phases=3 Windings=2
~ Buses=[Bus_F11_132KV_KATAMPE_TS_33KV_WUSE_II_FDR_B52_3A_End, Bus_DS_Monrovia_transformer_4_Consumer] kVA=500 kV=[11, 0.4]
New Transformer.TrLV_Tapeta_1_20_Tapeta_Street Phases=3 Windings=2
~ Buses=[Bus_F11_132KV_KATAMPE_TS_33KV_WUSE_II_FDR_B5_4A_End, Bus_DS_Tapeta_1_20_Tapeta_Street_Consumer] kVA=500 kV=[11, 0.4]
New Transformer.TrLV_Lingu_2_compact_DT Phases=3 Windings=2
~ Buses=[Bus_F11_132KV_KATAMPE_TS_33KV_WUSE_II_FDR_B52_3B_End, Bus_DS_Lingu_2_compact_DT_Consumer] kVA=500 kV=[11, 0.4]
New Transformer.TrLV_AGADES_1_50_AGADES_STREET_BY_KFC Phases=3 Windings=2
~ Buses=[Bus_F11_132KV_KATAMPE_TS_33KV_WUSE_II_FDR_B52_4B_End, Bus_DS_AGADES_1_50_AGADES_STREET_BY_KFC_Consumer] kVA=500 kV=[11, 0.4]
New Transformer.TrLV_LIBREVILLE_DT_1_NO_52_LIBREVILLE_STREET Phases=3 Windings=2
~ Buses=[Bus_F11_132KV_KATAMPE_TS_33KV_WUSE_II_FDR_B52_3B_End, Bus_DS_LIBREVILLE_DT_1_NO_52_LIBREVILLE_STREET_Consumer] kVA=500 kV=[11, 0.4]
New Transformer.TrLV_Blantyre_DT Phases=3 Windings=2
~ Buses=[Bus_F11_132KV_KATAMPE_TS_33KV_WUSE_II_FDR_B5_4A_End, Bus_DS_Blantyre_DT_Consumer] kVA=500 kV=[11, 0.4]
New Transformer.TrLV_LUNGI_2_DT Phases=3 Windings=2
~ Buses=[Bus_F11_132KV_KATAMPE_TS_33KV_WUSE_II_FDR_B52_4B_End, Bus_DS_LUNGI_2_DT_Consumer] kVA=500 kV=[11, 0.4]
New Transformer.TrLV_Dakala_DT Phases=3 Windings=2
~ Buses=[Bus_F11_132KV_KATAMPE_TS_33KV_WUSE_II_FDR_B52_2A_End, Bus_DS_Dakala_DT_Consumer] kVA=500 kV=[11, 0.4]
New Transformer.TrLV_MISRATAH_2_DT Phases=3 Windings=2
~ Buses=[Bus_F11_132KV_KATAMPE_TS_33KV_WUSE_II_FDR_B52_1A_End, Bus_DS_MISRATAH_2_DT_Consumer] kVA=500 kV=[11, 0.4]
New Transformer.TrLV_Old_Sterling_Bank_Compact_DT_Wuse_Market Phases=3 Windings=2
~ Buses=[Bus_F11_132KV_KATAMPE_TS_33KV_WUSE_II_FDR_B52_3B_End, Bus_DS_Old_Sterling_Bank_Compact_DT_Wuse_Market_Consumer] kVA=500 kV=[11, 0.4]
New Transformer.TrLV_PREMIER_SCHOOL_NDJAMENA_CRESCENT Phases=3 Windings=2
~ Buses=[Bus_F11_132KV_KATAMPE_TS_33KV_WUSE_II_FDR_B52_3B_End, Bus_DS_PREMIER_SCHOOL_NDJAMENA_CRESCENT_Consumer] kVA=500 kV=[11, 0.4]
New Transformer.TrLV_BUJUMBURA_DT_10_BUJUMBURA_STREET Phases=3 Windings=2
~ Buses=[Bus_F11_132KV_KATAMPE_TS_33KV_WUSE_II_FDR_B52_3B_End, Bus_DS_BUJUMBURA_DT_10_BUJUMBURA_STREET_Consumer] kVA=500 kV=[11, 0.4]
New Transformer.TrLV_Monrovia_DT_2 Phases=3 Windings=2
~ Buses=[Bus_F11_132KV_KATAMPE_TS_33KV_WUSE_II_FDR_B52_3A_End, Bus_DS_Monrovia_DT_2_Consumer] kVA=500 kV=[11, 0.4]
New Transformer.TrLV_Yalinga_DT1 Phases=3 Windings=2
~ Buses=[Bus_F11_132KV_KATAMPE_TS_33KV_WUSE_II_FDR_B5_4A_End, Bus_DS_Yalinga_DT1_Consumer] kVA=500 kV=[11, 0.4]
New Transformer.TrLV_DAMAGAZA_DT_2 Phases=3 Windings=2
~ Buses=[Bus_FLOATING, Bus_DS_DAMAGAZA_DT_2_Consumer] kVA=500 kV=[11, 0.4]
New Transformer.TrLV_AMAL_COURT_DT Phases=3 Windings=2
~ Buses=[Bus_F11_132KV_KATAMPE_TS_33KV_WUSE_II_FDR_B52_1A_End, Bus_DS_AMAL_COURT_DT_Consumer] kVA=500 kV=[11, 0.4]
New Transformer.TrLV_Kandi_close_DT Phases=3 Windings=2
~ Buses=[Bus_F11_132KV_KATAMPE_TS_33KV_WUSE_II_FDR_B52_3A_End, Bus_DS_Kandi_close_DT_Consumer] kVA=500 kV=[11, 0.4]
New Transformer.TrLV_Kumasi_DT_2 Phases=3 Windings=2
~ Buses=[Bus_F11_132KV_KATAMPE_TS_33KV_WUSE_II_FDR_B52_4B_End, Bus_DS_Kumasi_DT_2_Consumer] kVA=500 kV=[11, 0.4]
New Transformer.TrLV_NO_12_PARAKOU_STREET_DT Phases=3 Windings=2
~ Buses=[Bus_F11_132KV_KATAMPE_TS_33KV_WUSE_II_FDR_B52_2A_End, Bus_DS_NO_12_PARAKOU_STREET_DT_Consumer] kVA=200 kV=[11, 0.4]
New Transformer.TrLV_Lobito_2 Phases=3 Windings=2
~ Buses=[Bus_F11_132KV_KATAMPE_TS_33KV_WUSE_II_FDR_B5_3A_End, Bus_DS_Lobito_2_Consumer] kVA=500 kV=[11, 0.4]
New Transformer.TrLV_CASABLANCA_DT Phases=3 Windings=2
~ Buses=[Bus_F11_132KV_KATAMPE_TS_33KV_WUSE_II_FDR_B52_1A_End, Bus_DS_CASABLANCA_DT_Consumer] kVA=500 kV=[11, 0.4]
New Transformer.TrLV_FCDA_QUARTERS_46_Aminu_Kano_Crescent Phases=3 Windings=2
~ Buses=[Bus_F11_132KV_KATAMPE_TS_33KV_WUSE_II_FDR_B52_2B_End, Bus_DS_FCDA_QUARTERS_46_Aminu_Kano_Crescent_Consumer] kVA=500 kV=[11, 0.4]
New Transformer.TrLV_INEC_DT Phases=3 Windings=2
~ Buses=[Bus_F11_132KV_KATAMPE_TS_33KV_WUSE_II_FDR_B5_3B_End, Bus_DS_INEC_DT_Consumer] kVA=500 kV=[11, 0.4]
New Transformer.TrLV_FCDA_Quarters_1_DT Phases=3 Windings=2
~ Buses=[Bus_F11_132KV_KATAMPE_TS_33KV_WUSE_II_FDR_B52_2A_End, Bus_DS_FCDA_Quarters_1_DT_Consumer] kVA=1000 kV=[11, 0.4]
New Transformer.TrLV_Bangui_2 Phases=3 Windings=2
~ Buses=[Bus_F11_132KV_KATAMPE_TS_33KV_WUSE_II_FDR_B5_1B_End, Bus_DS_Bangui_2_Consumer] kVA=500 kV=[11, 0.4]
New Transformer.TrLV_Bangui_1 Phases=3 Windings=2
~ Buses=[Bus_F11_132KV_KATAMPE_TS_33KV_WUSE_II_FDR_B5_1B_End, Bus_DS_Bangui_1_Consumer] kVA=500 kV=[11, 0.4]
New Transformer.TrLV_Birao_3 Phases=3 Windings=2
~ Buses=[Bus_F11_132KV_KATAMPE_TS_33KV_WUSE_II_FDR_B5_4A_End, Bus_DS_Birao_3_Consumer] kVA=500 kV=[11, 0.4]
New Transformer.TrLV_Cairo_3_16_CAIRO_STREET Phases=3 Windings=2
~ Buses=[Bus_F11_132KV_KATAMPE_TS_33KV_WUSE_II_FDR_B5_3B_End, Bus_DS_Cairo_3_16_CAIRO_STREET_Consumer] kVA=630 kV=[11, 0.4]
New Transformer.TrLV_Buchanan_2_DT Phases=3 Windings=2
~ Buses=[Bus_F11_132KV_KATAMPE_TS_33KV_WUSE_II_FDR_B52_2B_End, Bus_DS_Buchanan_2_DT_Consumer] kVA=500 kV=[11, 0.4]
New Transformer.TrLV_NAIROBI_1_DT Phases=3 Windings=2
~ Buses=[Bus_F11_132KV_KATAMPE_TS_33KV_WUSE_II_FDR_B52_1A_End, Bus_DS_NAIROBI_1_DT_Consumer] kVA=500 kV=[11, 0.4]
New Transformer.TrLV_SHERIFF_COMPACT_DT Phases=3 Windings=2
~ Buses=[Bus_F11_132KV_KATAMPE_TS_33KV_WUSE_II_FDR_B52_2A_End, Bus_DS_SHERIFF_COMPACT_DT_Consumer] kVA=500 kV=[11, 0.4]
New Transformer.TrLV_Tapeta_2_8b_TAPETA_STREET Phases=3 Windings=2
~ Buses=[Bus_F11_132KV_KATAMPE_TS_33KV_WUSE_II_FDR_B5_4A_End, Bus_DS_Tapeta_2_8b_TAPETA_STREET_Consumer] kVA=500 kV=[11, 0.4]
New Transformer.TrLV_LIBREVILLE_DT_3_18LIBREVILLE_STREET Phases=3 Windings=2
~ Buses=[Bus_F11_132KV_KATAMPE_TS_33KV_WUSE_II_FDR_B52_3B_End, Bus_DS_LIBREVILLE_DT_3_18LIBREVILLE_STREET_Consumer] kVA=500 kV=[11, 0.4]
New Transformer.TrLV_Blantyre_2_14_Blantyre_street Phases=3 Windings=2
~ Buses=[Bus_F11_132KV_KATAMPE_TS_33KV_WUSE_II_FDR_B5_3B_End, Bus_DS_Blantyre_2_14_Blantyre_street_Consumer] kVA=500 kV=[11, 0.4]
New Transformer.TrLV_Birao_2 Phases=3 Windings=2
~ Buses=[Bus_F11_132KV_KATAMPE_TS_33KV_WUSE_II_FDR_B5_4A_End, Bus_DS_Birao_2_Consumer] kVA=500 kV=[11, 0.4]
New Transformer.TrLV_Durban_2_36_DURBAN_STREET Phases=3 Windings=2
~ Buses=[Bus_F11_132KV_KATAMPE_TS_33KV_WUSE_II_FDR_B5_3B_End, Bus_DS_Durban_2_36_DURBAN_STREET_Consumer] kVA=500 kV=[11, 0.4]
New Transformer.TrLV_Seguela_2_Opposite_6_Seguela_Street Phases=3 Windings=2
~ Buses=[Bus_F11_132KV_KATAMPE_TS_33KV_WUSE_II_FDR_B5_4A_End, Bus_DS_Seguela_2_Opposite_6_Seguela_Street_Consumer] kVA=500 kV=[11, 0.4]
New Transformer.TrLV_Parakou_2_DT Phases=3 Windings=2
~ Buses=[Bus_F11_132KV_KATAMPE_TS_33KV_WUSE_II_FDR_B52_2A_End, Bus_DS_Parakou_2_DT_Consumer] kVA=500 kV=[11, 0.4]
New Transformer.TrLV_GITUA_PLAZA Phases=3 Windings=2
~ Buses=[Bus_F11_132KV_KATAMPE_TS_33KV_WUSE_II_FDR_B5_1B_End, Bus_DS_GITUA_PLAZA_Consumer] kVA=500 kV=[11, 0.4]
New Transformer.TrLV_Pakali_DT Phases=3 Windings=2
~ Buses=[Bus_F11_132KV_KATAMPE_TS_33KV_WUSE_II_FDR_B52_4B_End, Bus_DS_Pakali_DT_Consumer] kVA=500 kV=[11, 0.4]
New Transformer.TrLV_MONROVIA_DT_2_MOROVIA_STREET_OPPOSITE_BON_HOTEL Phases=3 Windings=2
~ Buses=[Bus_F11_132KV_KATAMPE_TS_33KV_WUSE_II_FDR_B52_3A_End, Bus_DS_MONROVIA_DT_2_MOROVIA_STREET_OPPOSITE_BON_HOTEL_Consumer] kVA=500 kV=[11, 0.4]
New Transformer.TrLV_USMAN_BIN_AFFAN_DT Phases=3 Windings=2
~ Buses=[Bus_F11_132KV_KATAMPE_TS_33KV_WUSE_II_FDR_B52_2B_End, Bus_DS_USMAN_BIN_AFFAN_DT_Consumer] kVA=500 kV=[11, 0.4]
New Transformer.TrLV_Pencon_compact Phases=3 Windings=2
~ Buses=[Bus_F11_132KV_KATAMPE_TS_33KV_WUSE_II_FDR_B5_1B_End, Bus_DS_Pencon_compact_Consumer] kVA=100 kV=[11, 0.4]
New Transformer.TrLV_Lobito_3 Phases=3 Windings=2
~ Buses=[Bus_F11_132KV_KATAMPE_TS_33KV_WUSE_II_FDR_B5_3A_End, Bus_DS_Lobito_3_Consumer] kVA=500 kV=[11, 0.4]
New Transformer.TrLV_Embu_compact_DT Phases=3 Windings=2
~ Buses=[Bus_F11_132KV_KATAMPE_TS_33KV_WUSE_II_FDR_B52_4B_End, Bus_DS_Embu_compact_DT_Consumer] kVA=500 kV=[11, 0.4]
New Transformer.TrLV_YALINGA_2 Phases=3 Windings=2
~ Buses=[Bus_F11_132KV_KATAMPE_TS_33KV_WUSE_II_FDR_B5_4A_End, Bus_DS_YALINGA_2_Consumer] kVA=500 kV=[11, 0.4]
New Transformer.TrLV_DBM_COMPACT_DT Phases=3 Windings=2
~ Buses=[Bus_F11_132KV_KATAMPE_TS_33KV_WUSE_II_FDR_B52_1A_End, Bus_DS_DBM_COMPACT_DT_Consumer] kVA=500 kV=[11, 0.4]
New Transformer.TrLV_Kumasi_1_DT Phases=3 Windings=2
~ Buses=[Bus_F11_132KV_KATAMPE_TS_33KV_WUSE_II_FDR_B52_4B_End, Bus_DS_Kumasi_1_DT_Consumer] kVA=500 kV=[11, 0.4]
New Transformer.TrLV_Hombori_street_DT Phases=3 Windings=2
~ Buses=[Bus_F11_132KV_KATAMPE_TS_33KV_WUSE_II_FDR_B5_2B_End, Bus_DS_Hombori_street_DT_Consumer] kVA=500 kV=[11, 0.4]
New Transformer.TrLV_Bangui_dt Phases=3 Windings=2
~ Buses=[Bus_F11_132KV_KATAMPE_TS_33KV_WUSE_II_FDR_B5_3B_End, Bus_DS_Bangui_dt_Consumer] kVA=500 kV=[11, 0.4]
New Transformer.TrLV_KUMASI_6_DT Phases=3 Windings=2
~ Buses=[Bus_F11_132KV_KATAMPE_TS_33KV_WUSE_II_FDR_B52_4B_End, Bus_DS_KUMASI_6_DT_Consumer] kVA=500 kV=[11, 0.4]
New Transformer.TrLV_AGADEZ_3_TRANSFORMER Phases=3 Windings=2
~ Buses=[Bus_F11_132KV_KATAMPE_TS_33KV_WUSE_II_FDR_B52_4B_End, Bus_DS_AGADEZ_3_TRANSFORMER_Consumer] kVA=100 kV=[11, 0.4]
New Transformer.TrLV_COMPACT_S_S_BY_TAPETA_BY_NO_2_SEGUELA Phases=3 Windings=2
~ Buses=[Bus_F11_132KV_KATAMPE_TS_33KV_WUSE_II_FDR_B5_4A_End, Bus_DS_COMPACT_S_S_BY_TAPETA_BY_NO_2_SEGUELA_Consumer] kVA=500 kV=[11, 0.4]
New Transformer.TrLV_PORT_ELIZABETH_DT Phases=3 Windings=2
~ Buses=[Bus_F11_132KV_KATAMPE_TS_33KV_WUSE_II_FDR_B52_1A_End, Bus_DS_PORT_ELIZABETH_DT_Consumer] kVA=500 kV=[11, 0.4]
New Transformer.TrLV_WUMBA_DUSTBIN_DT Phases=3 Windings=2
~ Buses=[Bus_FLOATING, Bus_DS_WUMBA_DUSTBIN_DT_Consumer] kVA=300 kV=[11, 0.4]
New Transformer.TrLV_BANEX_JUNCTION_COMPACT_DT Phases=3 Windings=2
~ Buses=[Bus_F11_132KV_KATAMPE_TS_33KV_WUSE_II_FDR_B52_3A_End, Bus_DS_BANEX_JUNCTION_COMPACT_DT_Consumer] kVA=500 kV=[11, 0.4]
New Transformer.TrLV_Binos_Plaza_DT Phases=3 Windings=2
~ Buses=[Bus_FLOATING, Bus_DS_Binos_Plaza_DT_Consumer] kVA=200 kV=[11, 0.4]
New Transformer.TrLV_Urban_shelter_cluster_2_DT Phases=3 Windings=2
~ Buses=[Bus_FLOATING, Bus_DS_Urban_shelter_cluster_2_DT_Consumer] kVA=1000 kV=[11, 0.4]
New Transformer.TrLV_3rd_Avenue Phases=3 Windings=2
~ Buses=[Bus_FLOATING, Bus_DS_3rd_Avenue_Consumer] kVA=500 kV=[11, 0.4]
New Transformer.TrLV_Efab_City_Estate_DT_8 Phases=3 Windings=2
~ Buses=[Bus_FLOATING, Bus_DS_Efab_City_Estate_DT_8_Consumer] kVA=500 kV=[11, 0.4]
New Transformer.TrLV_Mosque_DT1 Phases=3 Windings=2
~ Buses=[Bus_FLOATING, Bus_DS_Mosque_DT1_Consumer] kVA=500 kV=[11, 0.4]
New Transformer.TrLV_1st_corner_shop Phases=3 Windings=2
~ Buses=[Bus_FLOATING, Bus_DS_1st_corner_shop_Consumer] kVA=500 kV=[11, 0.4]
New Transformer.TrLV_Rd_14_DT1 Phases=3 Windings=2
~ Buses=[Bus_FLOATING, Bus_DS_Rd_14_DT1_Consumer] kVA=500 kV=[11, 0.4]
New Transformer.TrLV_Peace_Court_Estate_DT_3 Phases=3 Windings=2
~ Buses=[Bus_FLOATING, Bus_DS_Peace_Court_Estate_DT_3_Consumer] kVA=300 kV=[11, 0.4]
New Transformer.TrLV_Nzube_Estate_DT_3 Phases=3 Windings=2
~ Buses=[Bus_FLOATING, Bus_DS_Nzube_Estate_DT_3_Consumer] kVA=500 kV=[11, 0.4]
New Transformer.TrLV_13_Road_Efab_City_Estate Phases=3 Windings=2
~ Buses=[Bus_FLOATING, Bus_DS_13_Road_Efab_City_Estate_Consumer] kVA=500 kV=[11, 0.4]
New Transformer.TrLV_AHMADU_BELLO_CLOSE_DT_1 Phases=3 Windings=2
~ Buses=[Bus_FLOATING, Bus_DS_AHMADU_BELLO_CLOSE_DT_1_Consumer] kVA=500 kV=[11, 0.4]
New Transformer.TrLV_Road_12_DT1 Phases=3 Windings=2
~ Buses=[Bus_FLOATING, Bus_DS_Road_12_DT1_Consumer] kVA=500 kV=[11, 0.4]
New Transformer.TrLV_Peace_Court_Estate_DT_2 Phases=3 Windings=2
~ Buses=[Bus_FLOATING, Bus_DS_Peace_Court_Estate_DT_2_Consumer] kVA=300 kV=[11, 0.4]
New Transformer.TrLV_NZUBE_DT2 Phases=3 Windings=2
~ Buses=[Bus_FLOATING, Bus_DS_NZUBE_DT2_Consumer] kVA=500 kV=[11, 0.4]
New Transformer.TrLV_Muhammedu_Bihari_DT Phases=3 Windings=2
~ Buses=[Bus_FLOATING, Bus_DS_Muhammedu_Bihari_DT_Consumer] kVA=500 kV=[11, 0.4]
New Transformer.TrLV_Efab_Estate_DT_1 Phases=3 Windings=2
~ Buses=[Bus_FLOATING, Bus_DS_Efab_Estate_DT_1_Consumer] kVA=500 kV=[11, 0.4]
New Transformer.TrLV_DIG_DT1 Phases=3 Windings=2
~ Buses=[Bus_FLOATING, Bus_DS_DIG_DT1_Consumer] kVA=500 kV=[11, 0.4]
New Transformer.TrLV_Rd_22_DT_1 Phases=3 Windings=2
~ Buses=[Bus_FLOATING, Bus_DS_Rd_22_DT_1_Consumer] kVA=500 kV=[11, 0.4]
New Transformer.TrLV_2nd_corner_shop_DT Phases=3 Windings=2
~ Buses=[Bus_FLOATING, Bus_DS_2nd_corner_shop_DT_Consumer] kVA=500 kV=[11, 0.4]
New Transformer.TrLV_31_Rd_DT Phases=3 Windings=2
~ Buses=[Bus_FLOATING, Bus_DS_31_Rd_DT_Consumer] kVA=500 kV=[11, 0.4]
New Transformer.TrLV_Nzube_4 Phases=3 Windings=2
~ Buses=[Bus_FLOATING, Bus_DS_Nzube_4_Consumer] kVA=300 kV=[11, 0.4]
New Transformer.TrLV_INEC Phases=3 Windings=2
~ Buses=[Bus_F11_132KV_KATAMPE_TS_33KV_WUSE_II_FDR_B5_3B_End, Bus_DS_INEC_Consumer] kVA=500 kV=[11, 0.4]
New Transformer.TrLV_SHELTER_VIEW_DT Phases=3 Windings=2
~ Buses=[Bus_FLOATING, Bus_DS_SHELTER_VIEW_DT_Consumer] kVA=500 kV=[11, 0.4]
New Transformer.TrLV_Minfa1_DT_4 Phases=3 Windings=2
~ Buses=[Bus_FLOATING, Bus_DS_Minfa1_DT_4_Consumer] kVA=500 kV=[11, 0.4]
New Transformer.TrLV_Abdullahi_Attah_Plaza_DT Phases=3 Windings=2
~ Buses=[Bus_FLOATING, Bus_DS_Abdullahi_Attah_Plaza_DT_Consumer] kVA=500 kV=[11, 0.4]
New Transformer.TrLV_CBN_quarters_DT_6 Phases=3 Windings=2
~ Buses=[Bus_F11_132KV_KATAMPE_TS_33KV_WUSE_II_FDR_B5_4A_End, Bus_DS_CBN_quarters_DT_6_Consumer] kVA=500 kV=[11, 0.4]
New Transformer.TrLV_MINFA_1_DT_2 Phases=3 Windings=2
~ Buses=[Bus_FLOATING, Bus_DS_MINFA_1_DT_2_Consumer] kVA=500 kV=[11, 0.4]
New Transformer.TrLV_PENT_CITY_DT_2 Phases=3 Windings=2
~ Buses=[Bus_FLOATING, Bus_DS_PENT_CITY_DT_2_Consumer] kVA=500 kV=[11, 0.4]
New Transformer.TrLV_ROAD_2_DT1 Phases=3 Windings=2
~ Buses=[Bus_FLOATING, Bus_DS_ROAD_2_DT1_Consumer] kVA=500 kV=[11, 0.4]
New Transformer.TrLV_Pent_ville_Estate_DT_1 Phases=3 Windings=2
~ Buses=[Bus_FLOATING, Bus_DS_Pent_ville_Estate_DT_1_Consumer] kVA=100 kV=[11, 0.4]
New Transformer.TrLV_MINFA_2_ESTATE_DT3 Phases=3 Windings=2
~ Buses=[Bus_FLOATING, Bus_DS_MINFA_2_ESTATE_DT3_Consumer] kVA=500 kV=[11, 0.4]
New Transformer.TrLV_His_Grace_Pavilion_DT2 Phases=3 Windings=2
~ Buses=[Bus_FLOATING, Bus_DS_His_Grace_Pavilion_DT2_Consumer] kVA=500 kV=[11, 0.4]
New Transformer.TrLV_Washington_DT_2 Phases=3 Windings=2
~ Buses=[Bus_FLOATING, Bus_DS_Washington_DT_2_Consumer] kVA=500 kV=[11, 0.4]
New Transformer.TrLV_Minfa_2_Estate_DT_1 Phases=3 Windings=2
~ Buses=[Bus_FLOATING, Bus_DS_Minfa_2_Estate_DT_1_Consumer] kVA=500 kV=[11, 0.4]
New Transformer.TrLV_FRSC_DT_1 Phases=3 Windings=2
~ Buses=[Bus_FLOATING, Bus_DS_FRSC_DT_1_Consumer] kVA=500 kV=[11, 0.4]
New Transformer.TrLV_IPENT_3_TR_1 Phases=3 Windings=2
~ Buses=[Bus_FLOATING, Bus_DS_IPENT_3_TR_1_Consumer] kVA=500 kV=[11, 0.4]
New Transformer.TrLV_Von_Dt Phases=3 Windings=2
~ Buses=[Bus_F11_132KV_KATAMPE_TS_33KV_WUSE_II_FDR_B52_4B_End, Bus_DS_Von_Dt_Consumer] kVA=750 kV=[11, 0.4]
New Transformer.TrLV_CBN_QUARTER_1 Phases=3 Windings=2
~ Buses=[Bus_F11_132KV_KATAMPE_TS_33KV_WUSE_II_FDR_B5_4A_End, Bus_DS_CBN_QUARTER_1_Consumer] kVA=500 kV=[11, 0.4]
New Transformer.TrLV_Palmview_Core_Earth_Estate Phases=3 Windings=2
~ Buses=[Bus_FLOATING, Bus_DS_Palmview_Core_Earth_Estate_Consumer] kVA=500 kV=[11, 0.4]
New Transformer.TrLV_Minfa_1_Estate_DT_1 Phases=3 Windings=2
~ Buses=[Bus_FLOATING, Bus_DS_Minfa_1_Estate_DT_1_Consumer] kVA=500 kV=[11, 0.4]
New Transformer.TrLV_Saraha_estate_Dt2 Phases=3 Windings=2
~ Buses=[Bus_FLOATING, Bus_DS_Saraha_estate_Dt2_Consumer] kVA=500 kV=[11, 0.4]
New Transformer.TrLV_Pengasan_Estate_3 Phases=3 Windings=2
~ Buses=[Bus_FLOATING, Bus_DS_Pengasan_Estate_3_Consumer] kVA=500 kV=[11, 0.4]
New Transformer.TrLV_Jubilation_better_Estate_1 Phases=3 Windings=2
~ Buses=[Bus_FLOATING, Bus_DS_Jubilation_better_Estate_1_Consumer] kVA=500 kV=[11, 0.4]
New Transformer.TrLV_Bentell_Gardens_Estate_DT_1 Phases=3 Windings=2
~ Buses=[Bus_FLOATING, Bus_DS_Bentell_Gardens_Estate_DT_1_Consumer] kVA=500 kV=[11, 0.4]
New Transformer.TrLV_MICHVILLE_TR_1 Phases=3 Windings=2
~ Buses=[Bus_FLOATING, Bus_DS_MICHVILLE_TR_1_Consumer] kVA=500 kV=[11, 0.4]
New Transformer.TrLV_Washington_DT_1 Phases=3 Windings=2
~ Buses=[Bus_FLOATING, Bus_DS_Washington_DT_1_Consumer] kVA=500 kV=[11, 0.4]
New Transformer.TrLV_IPENT_4_Estate Phases=3 Windings=2
~ Buses=[Bus_FLOATING, Bus_DS_IPENT_4_Estate_Consumer] kVA=500 kV=[11, 0.4]
New Transformer.TrLV_Fafun_estate_DT Phases=3 Windings=2
~ Buses=[Bus_FLOATING, Bus_DS_Fafun_estate_DT_Consumer] kVA=500 kV=[11, 0.4]
New Transformer.TrLV_IPENT_5_DT Phases=3 Windings=2
~ Buses=[Bus_FLOATING, Bus_DS_IPENT_5_DT_Consumer] kVA=500 kV=[11, 0.4]
New Transformer.TrLV_CBN_quarters_4 Phases=3 Windings=2
~ Buses=[Bus_F11_132KV_KATAMPE_TS_33KV_WUSE_II_FDR_B5_4A_End, Bus_DS_CBN_quarters_4_Consumer] kVA=500 kV=[11, 0.4]
New Transformer.TrLV_FRSC_DT_3 Phases=3 Windings=2
~ Buses=[Bus_FLOATING, Bus_DS_FRSC_DT_3_Consumer] kVA=500 kV=[11, 0.4]
New Transformer.TrLV_River_Valley_Estate_DT Phases=3 Windings=2
~ Buses=[Bus_FLOATING, Bus_DS_River_Valley_Estate_DT_Consumer] kVA=500 kV=[11, 0.4]
New Transformer.TrLV_Pentville_Estate_DT_4 Phases=3 Windings=2
~ Buses=[Bus_FLOATING, Bus_DS_Pentville_Estate_DT_4_Consumer] kVA=300 kV=[11, 0.4]
New Transformer.TrLV_COPACABANA_1 Phases=3 Windings=2
~ Buses=[Bus_FLOATING, Bus_DS_COPACABANA_1_Consumer] kVA=500 kV=[11, 0.4]
New Transformer.TrLV_CBN_QUARTER_DT_7 Phases=3 Windings=2
~ Buses=[Bus_F11_132KV_KATAMPE_TS_33KV_WUSE_II_FDR_B5_4A_End, Bus_DS_CBN_QUARTER_DT_7_Consumer] kVA=500 kV=[11, 0.4]
New Transformer.TrLV_First_Generation_Estate_DT Phases=3 Windings=2
~ Buses=[Bus_FLOATING, Bus_DS_First_Generation_Estate_DT_Consumer] kVA=500 kV=[11, 0.4]
New Transformer.TrLV_CITISCAPE_DT_1 Phases=3 Windings=2
~ Buses=[Bus_FLOATING, Bus_DS_CITISCAPE_DT_1_Consumer] kVA=500 kV=[11, 0.4]
New Transformer.TrLV_Citiscape_Dt_2 Phases=3 Windings=2
~ Buses=[Bus_FLOATING, Bus_DS_Citiscape_Dt_2_Consumer] kVA=500 kV=[11, 0.4]
New Transformer.TrLV_CBN_Quarters_3 Phases=3 Windings=2
~ Buses=[Bus_F11_132KV_KATAMPE_TS_33KV_WUSE_II_FDR_B5_4A_End, Bus_DS_CBN_Quarters_3_Consumer] kVA=500 kV=[11, 0.4]
New Transformer.TrLV_Abdullahi_Attach_We_Estate Phases=3 Windings=2
~ Buses=[Bus_FLOATING, Bus_DS_Abdullahi_Attach_We_Estate_Consumer] kVA=1000 kV=[11, 0.4]
New Transformer.TrLV_Minfa_estate_DT_2 Phases=3 Windings=2
~ Buses=[Bus_FLOATING, Bus_DS_Minfa_estate_DT_2_Consumer] kVA=500 kV=[11, 0.4]
New Transformer.TrLV_Minfa_1_DT_3 Phases=3 Windings=2
~ Buses=[Bus_FLOATING, Bus_DS_Minfa_1_DT_3_Consumer] kVA=500 kV=[11, 0.4]
New Transformer.TrLV_NNPC_pension_fund Phases=3 Windings=2
~ Buses=[Bus_F11_132KV_KATAMPE_TS_33KV_WUSE_II_FDR_B52_4B_End, Bus_DS_NNPC_pension_fund_Consumer] kVA=750 kV=[11, 0.4]
New Transformer.TrLV_BERGER_COLOUR_WORLD_DT Phases=3 Windings=2
~ Buses=[Bus_F11_132KV_KATAMPE_TS_33KV_WUSE_II_FDR_B52_1B_End, Bus_DS_BERGER_COLOUR_WORLD_DT_Consumer] kVA=200 kV=[11, 0.4]
New Transformer.TrLV_GLORY_MOJEC_PLAZA Phases=3 Windings=2
~ Buses=[Bus_F11_132KV_KATAMPE_TS_33KV_WUSE_II_FDR_B52_2A_End, Bus_DS_GLORY_MOJEC_PLAZA_Consumer] kVA=300 kV=[11, 0.4]
New Transformer.TrLV_Photo_gallery_DT_47_ADETOKUNBO_ADEMOLA Phases=3 Windings=2
~ Buses=[Bus_F11_132KV_KATAMPE_TS_33KV_WUSE_II_FDR_B5_3B_End, Bus_DS_Photo_gallery_DT_47_ADETOKUNBO_ADEMOLA_Consumer] kVA=500 kV=[11, 0.4]
New Transformer.TrLV_Oceanic_Catering_DT_2_Kolda_link_Street Phases=3 Windings=2
~ Buses=[Bus_F11_132KV_KATAMPE_TS_33KV_WUSE_II_FDR_B5_2A_End, Bus_DS_Oceanic_Catering_DT_2_Kolda_link_Street_Consumer] kVA=500 kV=[11, 0.4]
New Transformer.TrLV_SUPERMARKET_4U_DT_58_ADETOKUN_ADEMOLA_CRESCENT Phases=3 Windings=2
~ Buses=[Bus_F11_132KV_KATAMPE_TS_33KV_WUSE_II_FDR_B5_3B_End, Bus_DS_SUPERMARKET_4U_DT_58_ADETOKUN_ADEMOLA_CRESCENT_Consumer] kVA=200 kV=[11, 0.4]
New Transformer.TrLV_Kolda_Link_2_10_Kolda_Link Phases=3 Windings=2
~ Buses=[Bus_F11_132KV_KATAMPE_TS_33KV_WUSE_II_FDR_B5_2A_End, Bus_DS_Kolda_Link_2_10_Kolda_Link_Consumer] kVA=500 kV=[11, 0.4]
New Transformer.TrLV_REGENT_ESTATE_DT Phases=3 Windings=2
~ Buses=[Bus_FLOATING, Bus_DS_REGENT_ESTATE_DT_Consumer] kVA=300 kV=[11, 0.4]
New Transformer.TrLV_Tapeta_3_Private_12_Tapeta_Street Phases=3 Windings=2
~ Buses=[Bus_F11_132KV_KATAMPE_TS_33KV_WUSE_II_FDR_B5_4A_End, Bus_DS_Tapeta_3_Private_12_Tapeta_Street_Consumer] kVA=300 kV=[11, 0.4]
New Transformer.TrLV_WORLD_AID_DT Phases=3 Windings=2
~ Buses=[Bus_F11_132KV_KATAMPE_TS_33KV_WUSE_II_FDR_B5_3B_End, Bus_DS_WORLD_AID_DT_Consumer] kVA=300 kV=[11, 0.4]
New Transformer.TrLV_C_V_S_PLAZA_DT_145B_ADETOKUNBO_ADEMOLA Phases=3 Windings=2
~ Buses=[Bus_F11_132KV_KATAMPE_TS_33KV_WUSE_II_FDR_B5_3B_End, Bus_DS_C_V_S_PLAZA_DT_145B_ADETOKUNBO_ADEMOLA_Consumer] kVA=300 kV=[11, 0.4]
New Transformer.TrLV_AGAPE_REGENCY_HOTEL_DT Phases=3 Windings=2
~ Buses=[Bus_F11_132KV_KATAMPE_TS_33KV_WUSE_II_FDR_B52_4B_End, Bus_DS_AGAPE_REGENCY_HOTEL_DT_Consumer] kVA=300 kV=[11, 0.4]
New Transformer.TrLV_TULIP_PLAZA_DT Phases=3 Windings=2
~ Buses=[Bus_F11_132KV_KATAMPE_TS_33KV_WUSE_II_FDR_B52_2B_End, Bus_DS_TULIP_PLAZA_DT_Consumer] kVA=300 kV=[11, 0.4]
New Transformer.TrLV_FCDA_QUARTERS_DT_1_KASHIM_IBRAHIM_WAY Phases=3 Windings=2
~ Buses=[Bus_F11_132KV_KATAMPE_TS_33KV_WUSE_II_FDR_B52_3B_End, Bus_DS_FCDA_QUARTERS_DT_1_KASHIM_IBRAHIM_WAY_Consumer] kVA=500 kV=[11, 0.4]
New Transformer.TrLV_OLD_BANEX_PLAZA Phases=3 Windings=2
~ Buses=[Bus_F11_132KV_KATAMPE_TS_33KV_WUSE_II_FDR_B52_4A_End, Bus_DS_OLD_BANEX_PLAZA_Consumer] kVA=500 kV=[11, 0.4]
New Transformer.TrLV_Banex_villa Phases=3 Windings=2
~ Buses=[Bus_F11_132KV_KATAMPE_TS_33KV_WUSE_II_FDR_B52_4A_End, Bus_DS_Banex_villa_Consumer] kVA=500 kV=[11, 0.4]
New Transformer.TrLV_RABERTO_SCHOOL Phases=3 Windings=2
~ Buses=[Bus_F11_132KV_KATAMPE_TS_33KV_WUSE_II_FDR_B52_4B_End, Bus_DS_RABERTO_SCHOOL_Consumer] kVA=500 kV=[11, 0.4]
New Transformer.TrLV_FCDA_Quarters_2_DT Phases=3 Windings=2
~ Buses=[Bus_F11_132KV_KATAMPE_TS_33KV_WUSE_II_FDR_B52_2A_End, Bus_DS_FCDA_Quarters_2_DT_Consumer] kVA=500 kV=[11, 0.4]
New Transformer.TrLV_Bannex_Von_DT Phases=3 Windings=2
~ Buses=[Bus_F11_132KV_KATAMPE_TS_33KV_WUSE_II_FDR_B52_4A_End, Bus_DS_Bannex_Von_DT_Consumer] kVA=500 kV=[11, 0.4]
New Transformer.TrLV_Gwadal_center_FRIA_CLOSE Phases=3 Windings=2
~ Buses=[Bus_F11_132KV_KATAMPE_TS_33KV_WUSE_II_FDR_B5_2A_End, Bus_DS_Gwadal_center_FRIA_CLOSE_Consumer] kVA=300 kV=[11, 0.4]
New Transformer.TrLV_Zenith_Bank_Plot_1722_Adetokunbo_Ademola Phases=3 Windings=2
~ Buses=[Bus_F11_132KV_KATAMPE_TS_33KV_WUSE_II_FDR_B5_3A_End, Bus_DS_Zenith_Bank_Plot_1722_Adetokunbo_Ademola_Consumer] kVA=500 kV=[11, 0.4]
New Transformer.TrLV_VINET_HOSPITAL_DT Phases=3 Windings=2
~ Buses=[Bus_FLOATING, Bus_DS_VINET_HOSPITAL_DT_Consumer] kVA=500 kV=[11, 0.4]
New Transformer.TrLV_Basic_Estate_3 Phases=3 Windings=2
~ Buses=[Bus_FLOATING, Bus_DS_Basic_Estate_3_Consumer] kVA=500 kV=[11, 0.4]
New Transformer.TrLV_American_specialist_hospital Phases=3 Windings=2
~ Buses=[Bus_F11_132KV_KATAMPE_TS_33KV_WUSE_II_FDR_B5_2A_End, Bus_DS_American_specialist_hospital_Consumer] kVA=500 kV=[11, 0.4]
New Transformer.TrLV_DANTATA_DT_MORIJA_CLOSE Phases=3 Windings=2
~ Buses=[Bus_F11_132KV_KATAMPE_TS_33KV_WUSE_II_FDR_B5_3B_End, Bus_DS_DANTATA_DT_MORIJA_CLOSE_Consumer] kVA=300 kV=[11, 0.4]
New Transformer.TrLV_Air_wave_DT Phases=3 Windings=2
~ Buses=[Bus_F11_132KV_KATAMPE_TS_33KV_WUSE_II_FDR_B5_4A_End, Bus_DS_Air_wave_DT_Consumer] kVA=300 kV=[11, 0.4]
New Transformer.TrLV_TAKUM_TOWER_DT_14_SEGUELA_STREET Phases=3 Windings=2
~ Buses=[Bus_F11_132KV_KATAMPE_TS_33KV_WUSE_II_FDR_B5_4A_End, Bus_DS_TAKUM_TOWER_DT_14_SEGUELA_STREET_Consumer] kVA=300 kV=[11, 0.4]
New Transformer.TrLV_Barcelona_Residence_14_BLANTYRE_STREET Phases=3 Windings=2
~ Buses=[Bus_F11_132KV_KATAMPE_TS_33KV_WUSE_II_FDR_B5_3B_End, Bus_DS_Barcelona_Residence_14_BLANTYRE_STREET_Consumer] kVA=200 kV=[11, 0.4]
New Transformer.TrLV_M_I_AHAMAD_PLAZA_ADETOKUNBO_ADEMOLA Phases=3 Windings=2
~ Buses=[Bus_F11_132KV_KATAMPE_TS_33KV_WUSE_II_FDR_B5_1B_End, Bus_DS_M_I_AHAMAD_PLAZA_ADETOKUNBO_ADEMOLA_Consumer] kVA=500 kV=[11, 0.4]
New Transformer.TrLV_Spectranet_DT Phases=3 Windings=2
~ Buses=[Bus_F11_132KV_KATAMPE_TS_33KV_WUSE_II_FDR_B5_1B_End, Bus_DS_Spectranet_DT_Consumer] kVA=300 kV=[11, 0.4]
New Transformer.TrLV_Customer_quarters_2 Phases=3 Windings=2
~ Buses=[Bus_F11_132KV_KATAMPE_TS_33KV_WUSE_II_FDR_B5_2A_End, Bus_DS_Customer_quarters_2_Consumer] kVA=500 kV=[11, 0.4]
New Transformer.TrLV_ECOBANK_DT_112_Adetokunbo_Ademola Phases=3 Windings=2
~ Buses=[Bus_F11_132KV_KATAMPE_TS_33KV_WUSE_II_FDR_B5_1B_End, Bus_DS_ECOBANK_DT_112_Adetokunbo_Ademola_Consumer] kVA=200 kV=[11, 0.4]
New Transformer.TrLV_EDEN_PLACE_DT Phases=3 Windings=2
~ Buses=[Bus_F11_132KV_KATAMPE_TS_33KV_WUSE_II_FDR_B52_1A_End, Bus_DS_EDEN_PLACE_DT_Consumer] kVA=500 kV=[11, 0.4]
New Transformer.TrLV_Rock_view_Royal_hotel_4 Phases=3 Windings=2
~ Buses=[Bus_F11_132KV_KATAMPE_TS_33KV_WUSE_II_FDR_B5_1A_End, Bus_DS_Rock_view_Royal_hotel_4_Consumer] kVA=500 kV=[11, 0.4]
New Transformer.TrLV_Sakono_1_12_SAKONO_STREET Phases=3 Windings=2
~ Buses=[Bus_F11_132KV_KATAMPE_TS_33KV_WUSE_II_FDR_B5_4A_End, Bus_DS_Sakono_1_12_SAKONO_STREET_Consumer] kVA=500 kV=[11, 0.4]
New Transformer.TrLV_Custom_quarters_1 Phases=3 Windings=2
~ Buses=[Bus_F11_132KV_KATAMPE_TS_33KV_WUSE_II_FDR_B5_2A_End, Bus_DS_Custom_quarters_1_Consumer] kVA=300 kV=[11, 0.4]
New Transformer.TrLV_CHECK_IN_HOTEL_37_DURBAN_STREET Phases=3 Windings=2
~ Buses=[Bus_F11_132KV_KATAMPE_TS_33KV_WUSE_II_FDR_B5_3B_End, Bus_DS_CHECK_IN_HOTEL_37_DURBAN_STREET_Consumer] kVA=300 kV=[11, 0.4]
New Transformer.TrLV_Mines_and_Steels Phases=3 Windings=2
~ Buses=[Bus_F11_132KV_KATAMPE_TS_33KV_WUSE_II_FDR_B5_2A_End, Bus_DS_Mines_and_Steels_Consumer] kVA=500 kV=[11, 0.4]
New Transformer.TrLV_Atiku_presidential_campaign_organization_building_DT Phases=3 Windings=2
~ Buses=[Bus_F11_132KV_KATAMPE_TS_33KV_WUSE_II_FDR_B5_1B_End, Bus_DS_Atiku_presidential_campaign_organization_building_DT_Consumer] kVA=500 kV=[11, 0.4]
New Transformer.TrLV_Southern_Fried_Chicken_4_KOLDA_STREET Phases=3 Windings=2
~ Buses=[Bus_F11_132KV_KATAMPE_TS_33KV_WUSE_II_FDR_B5_2A_End, Bus_DS_Southern_Fried_Chicken_4_KOLDA_STREET_Consumer] kVA=300 kV=[11, 0.4]
New Transformer.TrLV_ECWA_DT Phases=3 Windings=2
~ Buses=[Bus_F11_132KV_KATAMPE_TS_33KV_WUSE_II_FDR_B5_4A_End, Bus_DS_ECWA_DT_Consumer] kVA=300 kV=[11, 0.4]
New Transformer.TrLV_IMMACULATE_DIAMOND_HOTEL_110_ADETOKUNBO_ADEMOLA Phases=3 Windings=2
~ Buses=[Bus_F11_132KV_KATAMPE_TS_33KV_WUSE_II_FDR_B5_3B_End, Bus_DS_IMMACULATE_DIAMOND_HOTEL_110_ADETOKUNBO_ADEMOLA_Consumer] kVA=300 kV=[11, 0.4]
New Transformer.TrLV_DEDICATED_S_S_STALLION_PROP_1 Phases=3 Windings=2
~ Buses=[Bus_F11_132KV_KATAMPE_TS_33KV_WUSE_II_FDR_B5_3A_End, Bus_DS_DEDICATED_S_S_STALLION_PROP_1_Consumer] kVA=500 kV=[11, 0.4]
New Transformer.TrLV_KOKKOIES_MALL_DT_ADETOKUNBO_ADEMOLA Phases=3 Windings=2
~ Buses=[Bus_F11_132KV_KATAMPE_TS_33KV_WUSE_II_FDR_B5_3B_End, Bus_DS_KOKKOIES_MALL_DT_ADETOKUNBO_ADEMOLA_Consumer] kVA=500 kV=[11, 0.4]